@<TRIPOS>MOLECULE
13
14 14 0 0 0
SMALL
GASTEIGER

@<TRIPOS>ATOM
     1 BR      1.1761     0.0031     0.1667 Br         1 UNL1 0.0
     2 C       3.0445    -0.0136    -0.0316 C.ar       1 UNL1 0.0
     3 C       3.7244     1.1761    -0.1374 C.ar       1 UNL1 0.0
     4 C       5.1004     1.1760    -0.2838 C.ar       1 UNL1 0.0
     5 N       5.8223     2.4411    -0.3966 N.pl3      1 UNL1 0.0
     6 O       5.1733     3.4924    -0.3609 O.co2      1 UNL1 0.0
     7 O       7.0513     2.4085    -0.5229 O.2        1 UNL1 0.0
     8 C       5.7848    -0.0230    -0.3228 C.ar       1 UNL1 0.0
     9 C       5.1017    -1.2148    -0.2165 C.ar       1 UNL1 0.0
    10 C       3.7262    -1.2095    -0.0704 C.ar       1 UNL1 0.0
    11 H       3.1935     2.1138    -0.1076 H          1 UNL1 0.0
    12 H       6.8559    -0.0029    -0.4373 H          1 UNL1 0.0
    13 H       5.6379    -2.1491    -0.2472 H          1 UNL1 0.0
    14 H       3.1764    -2.1329     0.0141 H          1 UNL1 0.0
@<TRIPOS>BOND
     1      1      2          1
     2      2      3         ar
     3      3      4         ar
     4      4      5          1
     5      5      6          1
     6      5      7          2
     7      4      8         ar
     8      8      9         ar
     9      9     10         ar
    10      2     10         ar
    11      3     11          1
    12      8     12          1
    13      9     13          1
    14     10     14          1

